DATABASE C:\Program Files (x86)\USGS\Phreeqc Interactive 3.6.2-15100\database\phreeqc.dat

SOLUTION 1
    temp      25
    pH        7
    pe        4
    redox     pe
    units     mmol/kgw
    density   1
    -water    1 # kg

EQUILIBRIUM_PHASES 1
    CO2(g)    -3.37 10
    Calcite   0 0.10

save solution 1
save equilibrium_phases 1
END

use solution 1
use equilibrium_phases 1

REACTION 1 titrate solution with HCL
    HCl        1
    0.5 moles in 10 steps

